Version 4
SHEET 1 1476 680
WIRE 544 -272 352 -272
WIRE 848 -272 544 -272
WIRE 976 -272 848 -272
WIRE 1072 -272 976 -272
WIRE 352 -256 352 -272
WIRE 544 -256 544 -272
WIRE 1072 -256 1072 -272
WIRE 848 -192 848 -272
WIRE 544 -144 544 -176
WIRE 784 -144 544 -144
WIRE 848 -64 848 -96
WIRE 1056 -64 848 -64
WIRE 976 0 976 -272
WIRE 352 48 352 -176
WIRE 912 48 352 48
WIRE 352 80 352 48
WIRE 352 80 160 80
WIRE 160 112 160 80
WIRE 352 112 352 80
WIRE 544 112 544 -144
WIRE 976 128 976 96
WIRE 1056 128 976 128
WIRE 96 160 80 160
WIRE 288 160 272 160
WIRE 656 160 608 160
WIRE 160 240 160 208
WIRE 352 240 352 208
WIRE 352 240 160 240
WIRE 448 240 352 240
WIRE 544 240 544 208
WIRE 544 240 448 240
WIRE 80 272 80 160
WIRE 80 272 32 272
WIRE 272 272 272 160
WIRE 272 272 224 272
WIRE 80 352 80 272
WIRE 272 352 272 272
WIRE 448 352 448 240
WIRE 80 464 80 432
WIRE 272 464 272 432
WIRE 272 464 80 464
WIRE 448 464 448 432
WIRE 448 464 272 464
WIRE 1056 464 448 464
FLAG 1072 -256 0
FLAG 656 160 VREF
FLAG 1056 464 VEE
FLAG 32 272 A1
IOPIN 32 272 In
FLAG 224 272 A2
IOPIN 224 272 In
FLAG 1056 128 ZN
IOPIN 1056 128 Out
FLAG 1056 -64 Z
IOPIN 1056 -64 Out
SYMBOL npn 96 112 R0
SYMATTR InstName Q1
SYMATTR Value 2N2222
SYMBOL npn 288 112 R0
SYMATTR InstName Q2
SYMATTR Value 2N2222
SYMBOL npn 608 112 M0
SYMATTR InstName Q3
SYMATTR Value 2N2222
SYMBOL res 64 336 R0
SYMATTR InstName R1
SYMATTR Value 50K
SYMBOL res 256 336 R0
SYMATTR InstName R2
SYMATTR Value 50K
SYMBOL res 432 336 R0
SYMATTR InstName R3
SYMATTR Value 779
SYMBOL res 336 -272 R0
SYMATTR InstName R4
SYMATTR Value 220
SYMBOL res 528 -272 R0
SYMATTR InstName R5
SYMATTR Value 245
SYMBOL npn 784 -192 R0
SYMATTR InstName Q4
SYMATTR Value 2N2222
SYMBOL npn 912 0 R0
SYMATTR InstName Q5
SYMATTR Value 2N2222
