Version 4
SHEET 1 880 704
WIRE 352 96 352 64
WIRE 512 96 512 64
WIRE 656 96 656 64
WIRE 352 192 352 176
WIRE 512 192 512 176
WIRE 656 192 656 176
WIRE 64 368 32 368
WIRE 400 368 64 368
WIRE 544 368 496 368
WIRE 608 368 544 368
WIRE 32 400 32 368
WIRE 400 400 160 400
WIRE 544 400 496 400
WIRE 736 400 544 400
WIRE 608 464 608 368
WIRE 736 464 736 400
WIRE 32 496 32 480
WIRE 64 560 32 560
WIRE 160 560 160 400
WIRE 160 560 64 560
WIRE 608 576 608 544
WIRE 736 576 736 544
WIRE 736 576 608 576
WIRE 768 576 736 576
WIRE 32 592 32 560
WIRE 32 688 32 672
FLAG 352 192 0
FLAG 512 192 0
FLAG 352 64 VREF
FLAG 512 64 VEE
FLAG 768 576 VT
FLAG 544 368 Z
FLAG 544 400 ZN
FLAG 32 496 0
FLAG 32 688 0
FLAG 64 368 A1
FLAG 64 560 A2
FLAG 656 192 0
FLAG 656 64 VT
SYMBOL nor2 448 384 R0
SYMATTR InstName X1
SYMBOL voltage 352 80 R0
SYMATTR InstName VREF
SYMATTR Value {VREF}
SYMBOL voltage 512 80 R0
SYMATTR InstName VEE
SYMATTR Value {VEE}
SYMBOL res 592 448 R0
SYMATTR InstName R1
SYMATTR Value 50
SYMBOL res 720 448 R0
SYMATTR InstName R2
SYMATTR Value 50
SYMBOL voltage 32 384 M0
SYMATTR InstName VA1
SYMATTR Value PULSE({vl} {vh} {1 * t1} 100p 100p {2 * t1} {4 * t1})
SYMBOL voltage 32 576 M0
SYMATTR InstName VA2
SYMATTR Value PULSE({vl} {vh} {2* t1} 100p 100p {2 * t1} {4 * t1})
SYMBOL voltage 656 80 R0
SYMATTR InstName VT
SYMATTR Value {VT}
TEXT 48 88 Left 2 !.global vref vee\n.param vref=-1.29V\n.param vee=-5.2V\n.param vt=-2V\n.param vl=-1.7V\n.param vh=-0.8V\n.param t1=100n\n.op\n.tran {5 * t1}
