Version 4
SHEET 1 2604 704
WIRE 1184 144 1184 112
WIRE 1344 144 1344 112
WIRE 1488 144 1488 112
WIRE 1184 240 1184 224
WIRE 1344 240 1344 224
WIRE 1488 240 1488 224
WIRE 1808 272 368 272
WIRE 368 368 368 272
WIRE 400 368 368 368
WIRE 1808 384 1808 272
WIRE 352 400 304 400
WIRE 400 400 352 400
WIRE 528 400 496 400
WIRE 560 400 528 400
WIRE 688 400 656 400
WIRE 720 400 688 400
WIRE 848 400 816 400
WIRE 880 400 848 400
WIRE 1008 400 976 400
WIRE 1040 400 1008 400
WIRE 1168 400 1136 400
WIRE 1200 400 1168 400
WIRE 1328 400 1296 400
WIRE 1360 400 1328 400
WIRE 1488 400 1456 400
WIRE 1520 400 1488 400
WIRE 1648 400 1616 400
WIRE 1680 400 1648 400
WIRE 1808 400 1808 384
WIRE 1808 400 1776 400
WIRE 528 432 528 400
WIRE 688 432 688 400
WIRE 848 432 848 400
WIRE 1008 432 1008 400
WIRE 1168 432 1168 400
WIRE 1328 432 1328 400
WIRE 1488 432 1488 400
WIRE 1648 432 1648 400
WIRE 1808 432 1808 400
WIRE 304 448 304 400
WIRE 304 544 304 528
WIRE 528 544 528 512
WIRE 688 544 688 512
WIRE 688 544 528 544
WIRE 848 544 848 512
WIRE 848 544 688 544
WIRE 1008 544 1008 512
WIRE 1008 544 848 544
WIRE 1168 544 1168 512
WIRE 1168 544 1008 544
WIRE 1328 544 1328 512
WIRE 1328 544 1168 544
WIRE 1488 544 1488 512
WIRE 1488 544 1328 544
WIRE 1648 544 1648 512
WIRE 1648 544 1488 544
WIRE 1808 544 1808 512
WIRE 1808 544 1648 544
WIRE 1840 544 1808 544
WIRE 1856 544 1840 544
FLAG 1184 240 0
FLAG 1344 240 0
FLAG 1184 112 VREF
FLAG 1344 112 VEE
FLAG 1488 240 0
FLAG 1488 112 VT
FLAG 1808 384 Y
FLAG 304 544 0
FLAG 352 400 RESET
FLAG 1840 544 VT
SYMBOL nor2 448 384 R0
SYMATTR InstName X1
SYMBOL voltage 1184 128 R0
SYMATTR InstName VREF
SYMATTR Value {VREF}
SYMBOL voltage 1344 128 R0
SYMATTR InstName VEE
SYMATTR Value {VEE}
SYMBOL res 512 416 R0
SYMATTR InstName R1
SYMATTR Value 50
SYMBOL voltage 1488 128 R0
SYMATTR InstName VT
SYMATTR Value {VT}
SYMBOL nor2 608 384 R0
SYMATTR InstName X2
SYMBOL res 672 416 R0
SYMATTR InstName R3
SYMATTR Value 50
SYMBOL nor2 768 384 R0
SYMATTR InstName X3
SYMBOL res 832 416 R0
SYMATTR InstName R5
SYMATTR Value 50
SYMBOL nor2 928 384 R0
SYMATTR InstName X4
SYMBOL res 992 416 R0
SYMATTR InstName R7
SYMATTR Value 50
SYMBOL nor2 1088 384 R0
SYMATTR InstName X5
SYMBOL res 1152 416 R0
SYMATTR InstName R9
SYMATTR Value 50
SYMBOL nor2 1248 384 R0
SYMATTR InstName X6
SYMBOL res 1312 416 R0
SYMATTR InstName R11
SYMATTR Value 50
SYMBOL nor2 1408 384 R0
SYMATTR InstName X7
SYMBOL res 1472 416 R0
SYMATTR InstName R13
SYMATTR Value 50
SYMBOL nor2 1568 384 R0
SYMATTR InstName X8
SYMBOL res 1632 416 R0
SYMATTR InstName R15
SYMATTR Value 50
SYMBOL nor2 1728 384 R0
SYMATTR InstName X9
SYMBOL res 1792 416 R0
SYMATTR InstName R17
SYMATTR Value 50
SYMBOL voltage 304 432 M0
SYMATTR InstName VRESET
SYMATTR Value PULSE({vl} {vh} 0 1n 1n 100n 1)
TEXT 48 88 Left 2 !.global vref vee\n.param vref=-1.29V\n.param vee=-5.2V\n.param vt=-2V\n.param vl=-1.7V\n.param vh=-0.8V\n.measure tran td1 trig v(y) val={vref} rise=5 targ v(y) val={vref} rise=6\n.measure tran td2 param {td1 / (2 * 9)}\n*.temp 0\n.op\n.tran 1u
